atp
 OpenBabel04042515343D

 47 49  0  0  1  0  0  0  0  0999 V2000
   11.4920   38.2460   35.2180 P   0  0  0  0  0  0  0  0  0  0  0  0
   11.8790   39.4960   34.5480 O   0  0  0  0  0  0  0  0  0  0  0  0
   12.0070   37.0200   34.4860 O   0  0  0  0  0  0  0  0  0  0  0  0
   10.0670   38.1510   35.2940 O   0  0  0  0  0  0  0  0  0  0  0  0
   11.4240   38.5380   38.1870 P   0  0  2  0  0  0  0  0  0  0  0  0
   10.2310   37.7110   38.2760 O   0  0  0  0  0  0  0  0  0  0  0  0
   11.2970   39.9810   38.5370 O   0  0  0  0  0  0  0  0  0  0  0  0
   12.0430   38.3100   36.7430 O   0  0  0  0  0  0  0  0  0  0  0  0
   12.8530   36.2730   39.2020 P   0  0  1  0  0  0  0  0  0  0  0  0
   11.7890   35.6170   39.9510 O   0  0  0  0  0  0  0  0  0  0  0  0
   13.0820   35.7070   37.8480 O   0  0  0  0  0  0  0  0  0  0  0  0
   12.4950   37.8330   39.0780 O   0  0  0  0  0  0  0  0  0  0  0  0
   14.2450   36.3150   39.9780 O   0  0  0  0  0  0  0  0  0  0  0  0
   15.3470   36.7520   39.1440 C   0  0  0  0  0  0  0  0  0  0  0  0
   16.5660   35.8400   39.2170 C   0  0  1  0  0  0  0  0  0  0  0  0
   16.7480   35.4380   40.5980 O   0  0  0  0  0  0  0  0  0  0  0  0
   16.4820   34.4990   38.5170 C   0  0  1  0  0  0  0  0  0  0  0  0
   16.6080   34.5820   37.1100 O   0  0  0  0  0  0  0  0  0  0  0  0
   17.6130   33.7330   39.2290 C   0  0  1  0  0  0  0  0  0  0  0  0
   18.9180   34.0110   38.7530 O   0  0  0  0  0  0  0  0  0  0  0  0
   17.4840   34.2140   40.6450 C   0  0  2  0  0  0  0  0  0  0  0  0
   16.7710   33.2810   41.5430 N   0  0  0  0  0  0  0  0  0  0  0  0
   15.4140   33.3220   41.6490 C   0  0  0  0  0  0  0  0  0  0  0  0
   14.9140   32.4560   42.5020 N   0  0  0  0  0  0  0  0  0  0  0  0
   16.0160   31.8340   43.0370 C   0  0  0  0  0  0  0  0  0  0  0  0
   16.1660   30.8240   44.0300 C   0  0  0  0  0  0  0  0  0  0  0  0
   15.1390   30.2180   44.6610 N   0  0  0  0  0  0  0  0  0  0  0  0
   17.4210   30.3870   44.2700 N   0  0  0  0  0  0  0  0  0  0  0  0
   18.4710   30.9860   43.6480 C   0  0  0  0  0  0  0  0  0  0  0  0
   18.4480   31.9530   42.7320 N   0  0  0  0  0  0  0  0  0  0  0  0
   17.1700   32.2520   42.3700 C   0  0  0  0  0  0  0  0  0  0  0  0
   11.5608   39.4837   33.6318 H   0  0  0  0  0  0  0  0  0  0  0  0
    9.6974   38.1103   34.3981 H   0  0  0  0  0  0  0  0  0  0  0  0
   10.6268   40.3935   37.9699 H   0  0  0  0  0  0  0  0  0  0  0  0
   10.9727   35.6244   39.4270 H   0  0  0  0  0  0  0  0  0  0  0  0
   15.0103   36.7861   38.1289 H   0  0  0  0  0  0  0  0  0  0  0  0
   15.6515   37.7125   39.5041 H   0  0  0  0  0  0  0  0  0  0  0  0
   17.3292   36.4300   38.7540 H   0  0  0  0  0  0  0  0  0  0  0  0
   15.5305   34.0155   38.5929 H   0  0  0  0  0  0  0  0  0  0  0  0
   17.4484   35.0112   36.8854 H   0  0  0  0  0  0  0  0  0  0  0  0
   17.5080   32.6789   39.0781 H   0  0  0  0  0  0  0  0  0  0  0  0
   19.1033   34.9580   38.8518 H   0  0  0  0  0  0  0  0  0  0  0  0
   18.4713   34.3170   41.0445 H   0  0  0  0  0  0  0  0  0  0  0  0
   14.8288   33.9764   41.1065 H   0  0  0  0  0  0  0  0  0  0  0  0
   14.2158   30.5202   44.5010 H   0  0  0  0  0  0  0  0  0  0  0  0
   15.3128   29.4736   45.2814 H   0  0  0  0  0  0  0  0  0  0  0  0
   19.4071   30.6478   43.9207 H   0  0  0  0  0  0  0  0  0  0  0  0
  1  4  1  0  0  0  0
  1  8  1  0  0  0  0
  2  1  1  0  0  0  0
  2 32  1  0  0  0  0
  3  1  2  0  0  0  0
  4 33  1  0  0  0  0
  5  6  2  0  0  0  0
  5  7  1  0  0  0  0
  5 12  1  0  0  0  0
  7 34  1  0  0  0  0
  8  5  1  0  0  0  0
  9 11  2  0  0  0  0
  9 10  1  0  0  0  0
  9 13  1  0  0  0  0
 10 35  1  0  0  0  0
 12  9  1  0  0  0  0
 14 15  1  0  0  0  0
 14 13  1  0  0  0  0
 14 36  1  0  0  0  0
 14 37  1  0  0  0  0
 15 16  1  0  0  0  0
 15 38  1  6  0  0  0
 16 21  1  0  0  0  0
 17 15  1  0  0  0  0
 17 19  1  0  0  0  0
 17 39  1  1  0  0  0
 18 17  1  0  0  0  0
 18 40  1  0  0  0  0
 19 21  1  0  0  0  0
 19 41  1  6  0  0  0
 20 19  1  0  0  0  0
 20 42  1  0  0  0  0
 21 22  1  0  0  0  0
 21 43  1  1  0  0  0
 22 23  1  0  0  0  0
 22 31  1  0  0  0  0
 23 24  2  0  0  0  0
 23 44  1  0  0  0  0
 24 25  1  0  0  0  0
 25 26  1  0  0  0  0
 26 28  2  0  0  0  0
 26 27  1  0  0  0  0
 27 45  1  0  0  0  0
 27 46  1  0  0  0  0
 29 28  1  0  0  0  0
 29 47  1  0  0  0  0
 30 29  2  0  0  0  0
 31 30  1  0  0  0  0
 31 25  2  0  0  0  0
M  END
