atp
  Mrv15b2304042515342D          

 47 49  0  0  1  0            999 V2000
    5.4348   14.5461    0.0000 P   0  0  0  0  0  0  0  0  0  0  0  0
    4.7674   14.0612    0.0000 O   0  0  0  0  0  0  0  0  0  0  0  0
    5.9198   13.8787    0.0000 O   0  0  0  0  0  0  0  0  0  0  0  0
    4.9499   15.2136    0.0000 O   0  0  0  0  0  0  0  0  0  0  0  0
    6.0160   15.8515    0.0000 P   0  0  2  0  0  0  0  0  0  0  0  0
    6.8365   15.9378    0.0000 O   0  0  0  0  0  0  0  0  0  0  0  0
    5.1956   15.7653    0.0000 O   0  0  0  0  0  0  0  0  0  0  0  0
    6.1023   15.0311    0.0000 O   0  0  0  0  0  0  0  0  0  0  0  0
    6.5972   17.1569    0.0000 P   0  0  1  0  0  0  0  0  0  0  0  0
    6.1123   17.8244    0.0000 O   0  0  0  0  0  0  0  0  0  0  0  0
    7.0822   16.4895    0.0000 O   0  0  0  0  0  0  0  0  0  0  0  0
    5.9298   16.6720    0.0000 O   0  0  0  0  0  0  0  0  0  0  0  0
    7.2647   17.6419    0.0000 O   0  0  0  0  0  0  0  0  0  0  0  0
    7.1784   18.4624    0.0000 C   0  0  0  0  0  0  0  0  0  0  0  0
    7.8459   18.9473    0.0000 C   0  0  1  0  0  0  0  0  0  0  0  0
    7.8459   19.7723    0.0000 O   0  0  0  0  0  0  0  0  0  0  0  0
    8.6305   18.6923    0.0000 C   0  0  1  0  0  0  0  0  0  0  0  0
    8.8854   17.9077    0.0000 O   0  0  0  0  0  0  0  0  0  0  0  0
    9.1154   19.3598    0.0000 C   0  0  1  0  0  0  0  0  0  0  0  0
    9.9404   19.3598    0.0000 O   0  0  0  0  0  0  0  0  0  0  0  0
    8.6305   20.0272    0.0000 C   0  0  2  0  0  0  0  0  0  0  0  0
    8.8854   20.8118    0.0000 N   0  0  0  0  0  0  0  0  0  0  0  0
    8.4005   21.4793    0.0000 C   0  0  0  0  0  0  0  0  0  0  0  0
    8.8854   22.1467    0.0000 N   0  0  0  0  0  0  0  0  0  0  0  0
    9.6701   21.8918    0.0000 C   0  0  0  0  0  0  0  0  0  0  0  0
   10.3845   22.3043    0.0000 C   0  0  0  0  0  0  0  0  0  0  0  0
   10.3845   23.1293    0.0000 N   0  0  0  0  0  0  0  0  0  0  0  0
   11.0990   21.8918    0.0000 N   0  0  0  0  0  0  0  0  0  0  0  0
   11.0990   21.0668    0.0000 C   0  0  0  0  0  0  0  0  0  0  0  0
   10.3845   20.6543    0.0000 N   0  0  0  0  0  0  0  0  0  0  0  0
    9.6701   21.0668    0.0000 C   0  0  0  0  0  0  0  0  0  0  0  0
    4.0137   14.3968    0.0000 H   0  0  0  0  0  0  0  0  0  0  0  0
    4.1294   15.1273    0.0000 H   0  0  0  0  0  0  0  0  0  0  0  0
    4.7106   16.4327    0.0000 H   0  0  0  0  0  0  0  0  0  0  0  0
    6.4479   18.5781    0.0000 H   0  0  0  0  0  0  0  0  0  0  0  0
    6.9859   19.2646    0.0000 H   0  0  0  0  0  0  0  0  0  0  0  0
    7.9321   18.1268    0.0000 H   0  0  0  0  0  0  0  0  0  0  0  0
    8.5133   19.4322    0.0000 H   0  0  0  0  0  0  0  0  0  0  0  0
    9.4453   18.5633    0.0000 H   0  0  0  0  0  0  0  0  0  0  0  0
    8.7245   17.0986    0.0000 H   0  0  0  0  0  0  0  0  0  0  0  0
    9.4900   20.0949    0.0000 H   0  0  0  0  0  0  0  0  0  0  0  0
   10.7654   19.3572    0.0000 H   0  0  0  0  0  0  0  0  0  0  0  0
    8.0471   20.6106    0.0000 H   0  0  0  0  0  0  0  0  0  0  0  0
    7.6794   21.8801    0.0000 H   0  0  0  0  0  0  0  0  0  0  0  0
   11.0990   23.5418    0.0000 H   0  0  0  0  0  0  0  0  0  0  0  0
    9.6701   23.5418    0.0000 H   0  0  0  0  0  0  0  0  0  0  0  0
   11.8135   20.6543    0.0000 H   0  0  0  0  0  0  0  0  0  0  0  0
  1  4  1  0  0  0  0
  1  8  1  0  0  0  0
  2  1  1  0  0  0  0
  2 32  1  0  0  0  0
  3  1  2  0  0  0  0
  4 33  1  0  0  0  0
  5  6  2  0  0  0  0
  5  7  1  1  0  0  0
  5 12  1  0  0  0  0
  7 34  1  0  0  0  0
  8  5  1  0  0  0  0
  9 11  2  0  0  0  0
  9 10  1  1  0  0  0
  9 13  1  0  0  0  0
 10 35  1  0  0  0  0
 12  9  1  0  0  0  0
 15 14  1  6  0  0  0
 14 13  1  0  0  0  0
 14 36  1  0  0  0  0
 14 37  1  0  0  0  0
 15 16  1  0  0  0  0
 15 38  1  6  0  0  0
 16 21  1  0  0  0  0
 17 15  1  0  0  0  0
 17 19  1  0  0  0  0
 17 39  1  1  0  0  0
 17 18  1  6  0  0  0
 18 40  1  0  0  0  0
 19 21  1  0  0  0  0
 19 41  1  1  0  0  0
 19 20  1  6  0  0  0
 20 42  1  0  0  0  0
 21 22  1  1  0  0  0
 21 43  1  6  0  0  0
 22 23  1  0  0  0  0
 22 31  1  0  0  0  0
 23 24  2  0  0  0  0
 23 44  1  0  0  0  0
 24 25  1  0  0  0  0
 25 26  1  0  0  0  0
 26 28  2  0  0  0  0
 26 27  1  0  0  0  0
 27 45  1  0  0  0  0
 27 46  1  0  0  0  0
 29 28  1  0  0  0  0
 29 47  1  0  0  0  0
 30 29  2  0  0  0  0
 31 30  1  0  0  0  0
 31 25  2  0  0  0  0
M  END
