@<TRIPOS>MOLECULE
atp
 47 49 0 0 0
SMALL
GASTEIGER

@<TRIPOS>ATOM
      1 P           1.4612    6.7987   -2.0712 P.3     1  UNL1        0.4808
      2 O           1.7624    6.2083   -3.4612 O.3     1  UNL1       -0.3023
      3 O           1.8424    5.8524   -1.0549 O.2     1  UNL1       -0.2271
      4 O          -0.0451    7.0972   -1.9556 O.3     1  UNL1       -0.3023
      5 P           2.0295    8.8262   -0.4556 P.3     1  UNL1        0.4918
      6 O           3.2688    9.5403   -0.1134 O.2     1  UNL1       -0.2265
      7 O           1.7690    7.7905    0.7005 O.3     1  UNL1       -0.3019
      8 O           2.2662    8.1148   -1.8818 O.3     1  UNL1       -0.1859
      9 P          -0.6603    9.4763   -0.6058 P.3     1  UNL1        0.4835
     10 O          -0.9540    8.3680    0.5117 O.3     1  UNL1       -0.3022
     11 O          -1.5459   10.6071   -0.3286 O.2     1  UNL1       -0.2269
     12 O           0.8659    9.9290   -0.5157 O.3     1  UNL1       -0.1858
     13 O          -0.9823    8.7870   -1.9963 O.3     1  UNL1       -0.2837
     14 C          -0.5297    9.6094   -3.0556 C.3     1  UNL1        0.0879
     15 C          -0.4365    8.8466   -4.3859 C.3     1  UNL1        0.1134
     16 O          -1.6875    8.1947   -4.6178 O.3     1  UNL1       -0.3456
     17 C          -0.1294    9.7644   -5.5990 C.3     1  UNL1        0.1135
     18 O           1.2084    9.5685   -6.0707 O.3     1  UNL1       -0.3864
     19 C          -1.2077    9.3093   -6.6077 C.3     1  UNL1        0.1285
     20 O          -0.7007    9.1123   -7.9244 O.3     1  UNL1       -0.3847
     21 C          -1.7700    7.9826   -6.0264 C.3     1  UNL1        0.1667
     22 N          -3.1222    7.6170   -6.3222 N.ar    1  UNL1       -0.2855
     23 C          -4.0307    8.2663   -7.0838 C.ar    1  UNL1        0.1004
     24 N          -5.2042    7.6045   -7.1380 N.ar    1  UNL1       -0.2306
     25 C          -5.0269    6.5134   -6.3957 C.ar    1  UNL1        0.1473
     26 C          -5.8855    5.4359   -6.0956 C.ar    1  UNL1        0.1472
     27 N          -7.1350    5.3925   -6.5815 N.pl3   1  UNL1       -0.3413
     28 N          -5.4110    4.4371   -5.3065 N.ar    1  UNL1       -0.2188
     29 C          -4.1456    4.4513   -4.7987 C.ar    1  UNL1        0.1205
     30 N          -3.3051    5.4940   -5.0795 N.ar    1  UNL1       -0.2159
     31 C          -3.7384    6.5023   -5.8690 C.ar    1  UNL1        0.1674
     32 H           1.2548    5.3785   -3.5806 H       1  UNL1        0.2220
     33 H          -0.5527    6.2674   -2.0750 H       1  UNL1        0.2220
     34 H           1.6725    8.2677    1.5510 H       1  UNL1        0.2220
     35 H          -1.8933    8.0932    0.4604 H       1  UNL1        0.2220
     36 H          -1.2037   10.4583   -3.1700 H       1  UNL1        0.0592
     37 H           0.4348   10.0511   -2.8052 H       1  UNL1        0.0592
     38 H           0.3305    8.0808   -4.3251 H       1  UNL1        0.0647
     39 H          -0.2306   10.8407   -5.3969 H       1  UNL1        0.0647
     40 H           1.8418    9.7770   -5.3525 H       1  UNL1        0.2100
     41 H          -1.9813   10.0805   -6.6226 H       1  UNL1        0.0665
     42 H          -0.3211    9.9522   -8.2573 H       1  UNL1        0.2101
     43 H          -1.1253    7.1387   -6.3055 H       1  UNL1        0.0866
     44 H          -3.8634    9.1493   -7.5701 H       1  UNL1        0.1030
     45 H          -7.5741    4.5846   -6.2725 H       1  UNL1        0.1438
     46 H          -7.6293    6.1677   -6.2722 H       1  UNL1        0.1438
     47 H          -3.8219    3.6837   -4.2148 H       1  UNL1        0.1048
@<TRIPOS>BOND
     1     1     4    1
     2     1     8    1
     3     2     1    1
     4     2    32    1
     5     3     1    2
     6     4    33    1
     7     5     6    2
     8     5     7    1
     9     5    12    1
    10     7    34    1
    11     8     5    1
    12     9    11    2
    13     9    10    1
    14     9    13    1
    15    10    35    1
    16    12     9    1
    17    15    14    1
    18    14    13    1
    19    14    36    1
    20    14    37    1
    21    15    16    1
    22    15    38    1
    23    16    21    1
    24    17    15    1
    25    17    19    1
    26    17    39    1
    27    17    18    1
    28    18    40    1
    29    19    21    1
    30    19    41    1
    31    19    20    1
    32    20    42    1
    33    21    22    1
    34    21    43    1
    35    22    23   ar
    36    22    31   ar
    37    23    24   ar
    38    23    44    1
    39    24    25   ar
    40    25    26   ar
    41    26    28   ar
    42    26    27    1
    43    27    45    1
    44    27    46    1
    45    29    28   ar
    46    29    47    1
    47    30    29   ar
    48    31    30   ar
    49    31    25   ar
